/*--------------------------------*- C++ -*----------------------------------*\
| =========                 |                                                 |
| \\      /  F ield         | OpenFOAM: The Open Source CFD Toolbox           |
|  \\    /   O peration     | Version:  2406                                  |
|   \\  /    A nd           | Website:  www.openfoam.com                      |
|    \\/     M anipulation  |                                                 |
\*---------------------------------------------------------------------------*/
FoamFile
{
    version     2.0;
    format      binary;
    arch        "LSB;label=32;scalar=64";
    class       polyBoundaryMesh;
    location    "constant/polyMesh";
    object      boundary;
}
// * * * * * * * * * * * * * * * * * * * * * * * * * * * * * * * * * * * * * //

9
(
    frontAndBack
    {
        type            wall;
        inGroups        1(wall);
        nFaces          0;
        startFace       632888;
    }
    inlet
    {
        type            patch;
        nFaces          0;
        startFace       632888;
    }
    outlet
    {
        type            patch;
        nFaces          0;
        startFace       632888;
    }
    lowerWall
    {
        type            wall;
        inGroups        1(wall);
        nFaces          2341;
        startFace       632888;
    }
    upperWall
    {
        type            wall;
        inGroups        1(wall);
        nFaces          0;
        startFace       635229;
    }
    ahmedBody
    {
        type            wall;
        inGroups        1(wall);
        nFaces          17265;
        startFace       635229;
    }
    procBoundary0to1
    {
        type            processor;
        inGroups        1(processor);
        nFaces          6064;
        startFace       652494;
        matchTolerance  0.0001;
        transform       unknown;
        myProcNo        0;
        neighbProcNo    1;
    }
    procBoundary0to2
    {
        type            processor;
        inGroups        1(processor);
        nFaces          30;
        startFace       658558;
        matchTolerance  0.0001;
        transform       unknown;
        myProcNo        0;
        neighbProcNo    2;
    }
    procBoundary0to3
    {
        type            processor;
        inGroups        1(processor);
        nFaces          5143;
        startFace       658588;
        matchTolerance  0.0001;
        transform       unknown;
        myProcNo        0;
        neighbProcNo    3;
    }
)

// ************************************************************************* //
