/*--------------------------------*- C++ -*----------------------------------*\
| =========                 |                                                 |
| \\      /  F ield         | OpenFOAM: The Open Source CFD Toolbox           |
|  \\    /   O peration     | Version:  2406                                  |
|   \\  /    A nd           | Website:  www.openfoam.com                      |
|    \\/     M anipulation  |                                                 |
\*---------------------------------------------------------------------------*/
FoamFile
{
    version     2.0;
    format      binary;
    arch        "LSB;label=32;scalar=64";
    class       polyBoundaryMesh;
    location    "constant/polyMesh";
    object      boundary;
}
// * * * * * * * * * * * * * * * * * * * * * * * * * * * * * * * * * * * * * //

8
(
    frontAndBack
    {
        type            wall;
        inGroups        1(wall);
        nFaces          0;
        startFace       666213;
    }
    inlet
    {
        type            patch;
        nFaces          0;
        startFace       666213;
    }
    outlet
    {
        type            patch;
        nFaces          0;
        startFace       666213;
    }
    lowerWall
    {
        type            wall;
        inGroups        1(wall);
        nFaces          1105;
        startFace       666213;
    }
    upperWall
    {
        type            wall;
        inGroups        1(wall);
        nFaces          0;
        startFace       667318;
    }
    ahmedBody
    {
        type            wall;
        inGroups        1(wall);
        nFaces          16244;
        startFace       667318;
    }
    procBoundary2to0
    {
        type            processor;
        inGroups        1(processor);
        nFaces          2062;
        startFace       683562;
        matchTolerance  0.0001;
        transform       unknown;
        myProcNo        2;
        neighbProcNo    0;
    }
    procBoundary2to3
    {
        type            processor;
        inGroups        1(processor);
        nFaces          5783;
        startFace       685624;
        matchTolerance  0.0001;
        transform       unknown;
        myProcNo        2;
        neighbProcNo    3;
    }
)

// ************************************************************************* //
