/*--------------------------------*- C++ -*----------------------------------*\
| =========                 |                                                 |
| \\      /  F ield         | OpenFOAM: The Open Source CFD Toolbox           |
|  \\    /   O peration     | Version:  2406                                  |
|   \\  /    A nd           | Website:  www.openfoam.com                      |
|    \\/     M anipulation  |                                                 |
\*---------------------------------------------------------------------------*/
FoamFile
{
    version     2.0;
    format      binary;
    arch        "LSB;label=32;scalar=64";
    class       polyBoundaryMesh;
    location    "constant/polyMesh";
    object      boundary;
}
// * * * * * * * * * * * * * * * * * * * * * * * * * * * * * * * * * * * * * //

8
(
    frontAndBack
    {
        type            wall;
        inGroups        1(wall);
        nFaces          3092;
        startFace       659697;
    }
    inlet
    {
        type            patch;
        nFaces          0;
        startFace       662789;
    }
    outlet
    {
        type            patch;
        nFaces          629;
        startFace       662789;
    }
    lowerWall
    {
        type            wall;
        inGroups        1(wall);
        nFaces          5251;
        startFace       663418;
    }
    upperWall
    {
        type            wall;
        inGroups        1(wall);
        nFaces          1547;
        startFace       668669;
    }
    ahmedBody
    {
        type            wall;
        inGroups        1(wall);
        nFaces          0;
        startFace       670216;
    }
    procBoundary2to1
    {
        type            processor;
        inGroups        1(processor);
        nFaces          337;
        startFace       670216;
        matchTolerance  0.0001;
        transform       unknown;
        myProcNo        2;
        neighbProcNo    1;
    }
    procBoundary2to3
    {
        type            processor;
        inGroups        1(processor);
        nFaces          4396;
        startFace       670553;
        matchTolerance  0.0001;
        transform       unknown;
        myProcNo        2;
        neighbProcNo    3;
    }
)

// ************************************************************************* //
