/*--------------------------------*- C++ -*----------------------------------*\
| =========                 |                                                 |
| \\      /  F ield         | OpenFOAM: The Open Source CFD Toolbox           |
|  \\    /   O peration     | Version:  2406                                  |
|   \\  /    A nd           | Website:  www.openfoam.com                      |
|    \\/     M anipulation  |                                                 |
\*---------------------------------------------------------------------------*/
FoamFile
{
    version     2.0;
    format      binary;
    arch        "LSB;label=32;scalar=64";
    class       polyBoundaryMesh;
    location    "constant/polyMesh";
    object      boundary;
}
// * * * * * * * * * * * * * * * * * * * * * * * * * * * * * * * * * * * * * //

7
(
    frontAndBack
    {
        type            wall;
        inGroups        1(wall);
        nFaces          2996;
        startFace       655932;
    }
    inlet
    {
        type            patch;
        nFaces          0;
        startFace       658928;
    }
    outlet
    {
        type            patch;
        nFaces          629;
        startFace       658928;
    }
    lowerWall
    {
        type            wall;
        inGroups        1(wall);
        nFaces          5159;
        startFace       659557;
    }
    upperWall
    {
        type            wall;
        inGroups        1(wall);
        nFaces          1494;
        startFace       664716;
    }
    ahmedBody
    {
        type            wall;
        inGroups        1(wall);
        nFaces          0;
        startFace       666210;
    }
    procBoundary1to0
    {
        type            processor;
        inGroups        1(processor);
        nFaces          4485;
        startFace       666210;
        matchTolerance  0.0001;
        transform       unknown;
        myProcNo        1;
        neighbProcNo    0;
    }
)

// ************************************************************************* //
