/*--------------------------------*- C++ -*----------------------------------*\
| =========                 |                                                 |
| \\      /  F ield         | OpenFOAM: The Open Source CFD Toolbox           |
|  \\    /   O peration     | Version:  2406                                  |
|   \\  /    A nd           | Website:  www.openfoam.com                      |
|    \\/     M anipulation  |                                                 |
\*---------------------------------------------------------------------------*/
FoamFile
{
    version     2.0;
    format      binary;
    arch        "LSB;label=32;scalar=64";
    class       polyBoundaryMesh;
    location    "constant/polyMesh";
    object      boundary;
}
// * * * * * * * * * * * * * * * * * * * * * * * * * * * * * * * * * * * * * //

9
(
    frontAndBack
    {
        type            wall;
        inGroups        1(wall);
        nFaces          3115;
        startFace       653314;
    }
    inlet
    {
        type            patch;
        nFaces          0;
        startFace       656429;
    }
    outlet
    {
        type            patch;
        nFaces          629;
        startFace       656429;
    }
    lowerWall
    {
        type            wall;
        inGroups        1(wall);
        nFaces          5589;
        startFace       657058;
    }
    upperWall
    {
        type            wall;
        inGroups        1(wall);
        nFaces          1571;
        startFace       662647;
    }
    ahmedBody
    {
        type            wall;
        inGroups        1(wall);
        nFaces          0;
        startFace       664218;
    }
    procBoundary0to1
    {
        type            processor;
        inGroups        1(processor);
        nFaces          5287;
        startFace       664218;
        matchTolerance  0.0001;
        transform       unknown;
        myProcNo        0;
        neighbProcNo    1;
    }
    procBoundary0to2
    {
        type            processor;
        inGroups        1(processor);
        nFaces          158;
        startFace       669505;
        matchTolerance  0.0001;
        transform       unknown;
        myProcNo        0;
        neighbProcNo    2;
    }
    procBoundary0to3
    {
        type            processor;
        inGroups        1(processor);
        nFaces          184;
        startFace       669663;
        matchTolerance  0.0001;
        transform       unknown;
        myProcNo        0;
        neighbProcNo    3;
    }
)

// ************************************************************************* //
