/*--------------------------------*- C++ -*----------------------------------*\
| =========                 |                                                 |
| \\      /  F ield         | OpenFOAM: The Open Source CFD Toolbox           |
|  \\    /   O peration     | Version:  2406                                  |
|   \\  /    A nd           | Website:  www.openfoam.com                      |
|    \\/     M anipulation  |                                                 |
\*---------------------------------------------------------------------------*/
FoamFile
{
    version     2.0;
    format      binary;
    arch        "LSB;label=32;scalar=64";
    class       polyBoundaryMesh;
    location    "constant/polyMesh";
    object      boundary;
}
// * * * * * * * * * * * * * * * * * * * * * * * * * * * * * * * * * * * * * //

9
(
    frontAndBack
    {
        type            wall;
        inGroups        1(wall);
        nFaces          1748;
        startFace       650290;
    }
    inlet
    {
        type            patch;
        nFaces          629;
        startFace       652038;
    }
    outlet
    {
        type            patch;
        nFaces          0;
        startFace       652667;
    }
    lowerWall
    {
        type            wall;
        inGroups        1(wall);
        nFaces          2884;
        startFace       652667;
    }
    upperWall
    {
        type            wall;
        inGroups        1(wall);
        nFaces          884;
        startFace       655551;
    }
    ahmedBody
    {
        type            wall;
        inGroups        1(wall);
        nFaces          11594;
        startFace       656435;
    }
    procBoundary2to0
    {
        type            processor;
        inGroups        1(processor);
        nFaces          391;
        startFace       668029;
        matchTolerance  0.0001;
        transform       unknown;
        myProcNo        2;
        neighbProcNo    0;
    }
    procBoundary2to1
    {
        type            processor;
        inGroups        1(processor);
        nFaces          196;
        startFace       668420;
        matchTolerance  0.0001;
        transform       unknown;
        myProcNo        2;
        neighbProcNo    1;
    }
    procBoundary2to3
    {
        type            processor;
        inGroups        1(processor);
        nFaces          5397;
        startFace       668616;
        matchTolerance  0.0001;
        transform       unknown;
        myProcNo        2;
        neighbProcNo    3;
    }
)

// ************************************************************************* //
