/*--------------------------------*- C++ -*----------------------------------*\
| =========                 |                                                 |
| \\      /  F ield         | OpenFOAM: The Open Source CFD Toolbox           |
|  \\    /   O peration     | Version:  2406                                  |
|   \\  /    A nd           | Website:  www.openfoam.com                      |
|    \\/     M anipulation  |                                                 |
\*---------------------------------------------------------------------------*/
FoamFile
{
    version     2.0;
    format      binary;
    arch        "LSB;label=32;scalar=64";
    class       polyBoundaryMesh;
    location    "constant/polyMesh";
    object      boundary;
}
// * * * * * * * * * * * * * * * * * * * * * * * * * * * * * * * * * * * * * //

9
(
    frontAndBack
    {
        type            wall;
        inGroups        1(wall);
        nFaces          31;
        startFace       653093;
    }
    inlet
    {
        type            patch;
        nFaces          0;
        startFace       653124;
    }
    outlet
    {
        type            patch;
        nFaces          0;
        startFace       653124;
    }
    lowerWall
    {
        type            wall;
        inGroups        1(wall);
        nFaces          2143;
        startFace       653124;
    }
    upperWall
    {
        type            wall;
        inGroups        1(wall);
        nFaces          0;
        startFace       655267;
    }
    ahmedBody
    {
        type            wall;
        inGroups        1(wall);
        nFaces          7527;
        startFace       655267;
    }
    procBoundary1to0
    {
        type            processor;
        inGroups        1(processor);
        nFaces          5287;
        startFace       662794;
        matchTolerance  0.0001;
        transform       unknown;
        myProcNo        1;
        neighbProcNo    0;
    }
    procBoundary1to2
    {
        type            processor;
        inGroups        1(processor);
        nFaces          3147;
        startFace       668081;
        matchTolerance  0.0001;
        transform       unknown;
        myProcNo        1;
        neighbProcNo    2;
    }
    procBoundary1to3
    {
        type            processor;
        inGroups        1(processor);
        nFaces          2826;
        startFace       671228;
        matchTolerance  0.0001;
        transform       unknown;
        myProcNo        1;
        neighbProcNo    3;
    }
)

// ************************************************************************* //
