/*--------------------------------*- C++ -*----------------------------------*\
| =========                 |                                                 |
| \\      /  F ield         | OpenFOAM: The Open Source CFD Toolbox           |
|  \\    /   O peration     | Version:  2406                                  |
|   \\  /    A nd           | Website:  www.openfoam.com                      |
|    \\/     M anipulation  |                                                 |
\*---------------------------------------------------------------------------*/
FoamFile
{
    version     2.0;
    format      binary;
    arch        "LSB;label=32;scalar=64";
    class       polyBoundaryMesh;
    location    "constant/polyMesh";
    object      boundary;
}
// * * * * * * * * * * * * * * * * * * * * * * * * * * * * * * * * * * * * * //

8
(
    frontAndBack
    {
        type            wall;
        inGroups        1(wall);
        nFaces          0;
        startFace       655455;
    }
    inlet
    {
        type            patch;
        nFaces          0;
        startFace       655455;
    }
    outlet
    {
        type            patch;
        nFaces          0;
        startFace       655455;
    }
    lowerWall
    {
        type            wall;
        inGroups        1(wall);
        nFaces          1088;
        startFace       655455;
    }
    upperWall
    {
        type            wall;
        inGroups        1(wall);
        nFaces          0;
        startFace       656543;
    }
    ahmedBody
    {
        type            wall;
        inGroups        1(wall);
        nFaces          19466;
        startFace       656543;
    }
    procBoundary0to1
    {
        type            processor;
        inGroups        1(processor);
        nFaces          6060;
        startFace       676009;
        matchTolerance  0.0001;
        transform       unknown;
        myProcNo        0;
        neighbProcNo    1;
    }
    procBoundary0to3
    {
        type            processor;
        inGroups        1(processor);
        nFaces          4835;
        startFace       682069;
        matchTolerance  0.0001;
        transform       unknown;
        myProcNo        0;
        neighbProcNo    3;
    }
)

// ************************************************************************* //
