/*--------------------------------*- C++ -*----------------------------------*\
| =========                 |                                                 |
| \\      /  F ield         | OpenFOAM: The Open Source CFD Toolbox           |
|  \\    /   O peration     | Version:  2406                                  |
|   \\  /    A nd           | Website:  www.openfoam.com                      |
|    \\/     M anipulation  |                                                 |
\*---------------------------------------------------------------------------*/
FoamFile
{
    version     2.0;
    format      binary;
    arch        "LSB;label=32;scalar=64";
    class       polyBoundaryMesh;
    location    "constant/polyMesh";
    object      boundary;
}
// * * * * * * * * * * * * * * * * * * * * * * * * * * * * * * * * * * * * * //

9
(
    frontAndBack
    {
        type            wall;
        inGroups        1(wall);
        nFaces          41;
        startFace       665226;
    }
    inlet
    {
        type            patch;
        nFaces          0;
        startFace       665267;
    }
    outlet
    {
        type            patch;
        nFaces          0;
        startFace       665267;
    }
    lowerWall
    {
        type            wall;
        inGroups        1(wall);
        nFaces          3057;
        startFace       665267;
    }
    upperWall
    {
        type            wall;
        inGroups        1(wall);
        nFaces          0;
        startFace       668324;
    }
    ahmedBody
    {
        type            wall;
        inGroups        1(wall);
        nFaces          8351;
        startFace       668324;
    }
    procBoundary3to0
    {
        type            processor;
        inGroups        1(processor);
        nFaces          4835;
        startFace       676675;
        matchTolerance  0.0001;
        transform       unknown;
        myProcNo        3;
        neighbProcNo    0;
    }
    procBoundary3to1
    {
        type            processor;
        inGroups        1(processor);
        nFaces          418;
        startFace       681510;
        matchTolerance  0.0001;
        transform       unknown;
        myProcNo        3;
        neighbProcNo    1;
    }
    procBoundary3to2
    {
        type            processor;
        inGroups        1(processor);
        nFaces          4396;
        startFace       681928;
        matchTolerance  0.0001;
        transform       unknown;
        myProcNo        3;
        neighbProcNo    2;
    }
)

// ************************************************************************* //
