/*--------------------------------*- C++ -*----------------------------------*\
| =========                 |                                                 |
| \\      /  F ield         | OpenFOAM: The Open Source CFD Toolbox           |
|  \\    /   O peration     | Version:  2406                                  |
|   \\  /    A nd           | Website:  www.openfoam.com                      |
|    \\/     M anipulation  |                                                 |
\*---------------------------------------------------------------------------*/
FoamFile
{
    version     2.0;
    format      binary;
    arch        "LSB;label=32;scalar=64";
    class       polyBoundaryMesh;
    location    "constant/polyMesh";
    object      boundary;
}
// * * * * * * * * * * * * * * * * * * * * * * * * * * * * * * * * * * * * * //

8
(
    frontAndBack
    {
        type            wall;
        inGroups        1(wall);
        nFaces          0;
        startFace       650603;
    }
    inlet
    {
        type            patch;
        nFaces          0;
        startFace       650603;
    }
    outlet
    {
        type            patch;
        nFaces          0;
        startFace       650603;
    }
    lowerWall
    {
        type            wall;
        inGroups        1(wall);
        nFaces          2886;
        startFace       650603;
    }
    upperWall
    {
        type            wall;
        inGroups        1(wall);
        nFaces          0;
        startFace       653489;
    }
    ahmedBody
    {
        type            wall;
        inGroups        1(wall);
        nFaces          20259;
        startFace       653489;
    }
    procBoundary3to0
    {
        type            processor;
        inGroups        1(processor);
        nFaces          3809;
        startFace       673748;
        matchTolerance  0.0001;
        transform       unknown;
        myProcNo        3;
        neighbProcNo    0;
    }
    procBoundary3to2
    {
        type            processor;
        inGroups        1(processor);
        nFaces          5783;
        startFace       677557;
        matchTolerance  0.0001;
        transform       unknown;
        myProcNo        3;
        neighbProcNo    2;
    }
)

// ************************************************************************* //
