/*--------------------------------*- C++ -*----------------------------------*\
| =========                 |                                                 |
| \\      /  F ield         | OpenFOAM: The Open Source CFD Toolbox           |
|  \\    /   O peration     | Version:  2406                                  |
|   \\  /    A nd           | Website:  www.openfoam.com                      |
|    \\/     M anipulation  |                                                 |
\*---------------------------------------------------------------------------*/
FoamFile
{
    version     2.0;
    format      binary;
    arch        "LSB;label=32;scalar=64";
    class       polyBoundaryMesh;
    location    "constant/polyMesh";
    object      boundary;
}
// * * * * * * * * * * * * * * * * * * * * * * * * * * * * * * * * * * * * * //

6
(
    frontAndBack
    {
        type            wall;
        inGroups        1(wall);
        nFaces          4964;
        startFace       2564384;
    }
    inlet
    {
        type            patch;
        nFaces          629;
        startFace       2569348;
    }
    outlet
    {
        type            patch;
        nFaces          629;
        startFace       2569977;
    }
    lowerWall
    {
        type            wall;
        inGroups        1(wall);
        nFaces          12709;
        startFace       2570606;
    }
    upperWall
    {
        type            wall;
        inGroups        1(wall);
        nFaces          2482;
        startFace       2583315;
    }
    ahmedBody
    {
        type            wall;
        inGroups        1(wall);
        nFaces          33794;
        startFace       2585797;
    }
)

// ************************************************************************* //
