/*--------------------------------*- C++ -*----------------------------------*\
| =========                 |                                                 |
| \\      /  F ield         | OpenFOAM: The Open Source CFD Toolbox           |
|  \\    /   O peration     | Version:  2406                                  |
|   \\  /    A nd           | Website:  www.openfoam.com                      |
|    \\/     M anipulation  |                                                 |
\*---------------------------------------------------------------------------*/
FoamFile
{
    version     2.0;
    format      binary;
    arch        "LSB;label=32;scalar=64";
    class       polyBoundaryMesh;
    location    "constant/polyMesh";
    object      boundary;
}
// * * * * * * * * * * * * * * * * * * * * * * * * * * * * * * * * * * * * * //

9
(
    frontAndBack
    {
        type            wall;
        inGroups        1(wall);
        nFaces          57;
        startFace       633957;
    }
    inlet
    {
        type            patch;
        nFaces          0;
        startFace       634014;
    }
    outlet
    {
        type            patch;
        nFaces          0;
        startFace       634014;
    }
    lowerWall
    {
        type            wall;
        inGroups        1(wall);
        nFaces          2439;
        startFace       634014;
    }
    upperWall
    {
        type            wall;
        inGroups        1(wall);
        nFaces          0;
        startFace       636453;
    }
    ahmedBody
    {
        type            wall;
        inGroups        1(wall);
        nFaces          6399;
        startFace       636453;
    }
    procBoundary3to0
    {
        type            processor;
        inGroups        1(processor);
        nFaces          5143;
        startFace       642852;
        matchTolerance  0.0001;
        transform       unknown;
        myProcNo        3;
        neighbProcNo    0;
    }
    procBoundary3to1
    {
        type            processor;
        inGroups        1(processor);
        nFaces          712;
        startFace       647995;
        matchTolerance  0.0001;
        transform       unknown;
        myProcNo        3;
        neighbProcNo    1;
    }
    procBoundary3to2
    {
        type            processor;
        inGroups        1(processor);
        nFaces          4500;
        startFace       648707;
        matchTolerance  0.0001;
        transform       unknown;
        myProcNo        3;
        neighbProcNo    2;
    }
)

// ************************************************************************* //
