/*--------------------------------*- C++ -*----------------------------------*\
| =========                 |                                                 |
| \\      /  F ield         | OpenFOAM: The Open Source CFD Toolbox           |
|  \\    /   O peration     | Version:  2406                                  |
|   \\  /    A nd           | Website:  www.openfoam.com                      |
|    \\/     M anipulation  |                                                 |
\*---------------------------------------------------------------------------*/
FoamFile
{
    version     2.0;
    format      binary;
    arch        "LSB;label=32;scalar=64";
    class       polyBoundaryMesh;
    location    "constant/polyMesh";
    object      boundary;
}
// * * * * * * * * * * * * * * * * * * * * * * * * * * * * * * * * * * * * * //

9
(
    frontAndBack
    {
        type            wall;
        inGroups        1(wall);
        nFaces          1831;
        startFace       660360;
    }
    inlet
    {
        type            patch;
        nFaces          629;
        startFace       662191;
    }
    outlet
    {
        type            patch;
        nFaces          0;
        startFace       662820;
    }
    lowerWall
    {
        type            wall;
        inGroups        1(wall);
        nFaces          3313;
        startFace       662820;
    }
    upperWall
    {
        type            wall;
        inGroups        1(wall);
        nFaces          935;
        startFace       666133;
    }
    ahmedBody
    {
        type            wall;
        inGroups        1(wall);
        nFaces          11919;
        startFace       667068;
    }
    procBoundary1to0
    {
        type            processor;
        inGroups        1(processor);
        nFaces          6060;
        startFace       678987;
        matchTolerance  0.0001;
        transform       unknown;
        myProcNo        1;
        neighbProcNo    0;
    }
    procBoundary1to2
    {
        type            processor;
        inGroups        1(processor);
        nFaces          337;
        startFace       685047;
        matchTolerance  0.0001;
        transform       unknown;
        myProcNo        1;
        neighbProcNo    2;
    }
    procBoundary1to3
    {
        type            processor;
        inGroups        1(processor);
        nFaces          418;
        startFace       685384;
        matchTolerance  0.0001;
        transform       unknown;
        myProcNo        1;
        neighbProcNo    3;
    }
)

// ************************************************************************* //
