/*--------------------------------*- C++ -*----------------------------------*\
| =========                 |                                                 |
| \\      /  F ield         | OpenFOAM: The Open Source CFD Toolbox           |
|  \\    /   O peration     | Version:  2406                                  |
|   \\  /    A nd           | Website:  www.openfoam.com                      |
|    \\/     M anipulation  |                                                 |
\*---------------------------------------------------------------------------*/
FoamFile
{
    version     2.0;
    format      binary;
    arch        "LSB;label=32;scalar=64";
    class       polyBoundaryMesh;
    location    "constant/polyMesh";
    object      boundary;
}
// * * * * * * * * * * * * * * * * * * * * * * * * * * * * * * * * * * * * * //

9
(
    frontAndBack
    {
        type            wall;
        inGroups        1(wall);
        nFaces          0;
        startFace       639664;
    }
    inlet
    {
        type            patch;
        nFaces          0;
        startFace       639664;
    }
    outlet
    {
        type            patch;
        nFaces          0;
        startFace       639664;
    }
    lowerWall
    {
        type            wall;
        inGroups        1(wall);
        nFaces          1768;
        startFace       639664;
    }
    upperWall
    {
        type            wall;
        inGroups        1(wall);
        nFaces          0;
        startFace       641432;
    }
    ahmedBody
    {
        type            wall;
        inGroups        1(wall);
        nFaces          17831;
        startFace       641432;
    }
    procBoundary3to0
    {
        type            processor;
        inGroups        1(processor);
        nFaces          19;
        startFace       659263;
        matchTolerance  0.0001;
        transform       unknown;
        myProcNo        3;
        neighbProcNo    0;
    }
    procBoundary3to1
    {
        type            processor;
        inGroups        1(processor);
        nFaces          5054;
        startFace       659282;
        matchTolerance  0.0001;
        transform       unknown;
        myProcNo        3;
        neighbProcNo    1;
    }
    procBoundary3to2
    {
        type            processor;
        inGroups        1(processor);
        nFaces          5397;
        startFace       664336;
        matchTolerance  0.0001;
        transform       unknown;
        myProcNo        3;
        neighbProcNo    2;
    }
)

// ************************************************************************* //
