/*--------------------------------*- C++ -*----------------------------------*\
| =========                 |                                                 |
| \\      /  F ield         | OpenFOAM: The Open Source CFD Toolbox           |
|  \\    /   O peration     | Version:  2406                                  |
|   \\  /    A nd           | Website:  www.openfoam.com                      |
|    \\/     M anipulation  |                                                 |
\*---------------------------------------------------------------------------*/
FoamFile
{
    version     2.0;
    format      binary;
    arch        "LSB;label=32;scalar=64";
    class       polyBoundaryMesh;
    location    "constant/polyMesh";
    object      boundary;
}
// * * * * * * * * * * * * * * * * * * * * * * * * * * * * * * * * * * * * * //

9
(
    frontAndBack
    {
        type            wall;
        inGroups        1(wall);
        nFaces          1794;
        startFace       641117;
    }
    inlet
    {
        type            patch;
        nFaces          629;
        startFace       642911;
    }
    outlet
    {
        type            patch;
        nFaces          0;
        startFace       643540;
    }
    lowerWall
    {
        type            wall;
        inGroups        1(wall);
        nFaces          2627;
        startFace       643540;
    }
    upperWall
    {
        type            wall;
        inGroups        1(wall);
        nFaces          916;
        startFace       646167;
    }
    ahmedBody
    {
        type            wall;
        inGroups        1(wall);
        nFaces          10130;
        startFace       647083;
    }
    procBoundary1to0
    {
        type            processor;
        inGroups        1(processor);
        nFaces          6064;
        startFace       657213;
        matchTolerance  0.0001;
        transform       unknown;
        myProcNo        1;
        neighbProcNo    0;
    }
    procBoundary1to2
    {
        type            processor;
        inGroups        1(processor);
        nFaces          347;
        startFace       663277;
        matchTolerance  0.0001;
        transform       unknown;
        myProcNo        1;
        neighbProcNo    2;
    }
    procBoundary1to3
    {
        type            processor;
        inGroups        1(processor);
        nFaces          712;
        startFace       663624;
        matchTolerance  0.0001;
        transform       unknown;
        myProcNo        1;
        neighbProcNo    3;
    }
)

// ************************************************************************* //
