/*--------------------------------*- C++ -*----------------------------------*\
| =========                 |                                                 |
| \\      /  F ield         | OpenFOAM: The Open Source CFD Toolbox           |
|  \\    /   O peration     | Version:  2406                                  |
|   \\  /    A nd           | Website:  www.openfoam.com                      |
|    \\/     M anipulation  |                                                 |
\*---------------------------------------------------------------------------*/
FoamFile
{
    version     2.0;
    format      binary;
    arch        "LSB;label=32;scalar=64";
    class       polyBoundaryMesh;
    location    "constant/polyMesh";
    object      boundary;
}
// * * * * * * * * * * * * * * * * * * * * * * * * * * * * * * * * * * * * * //

9
(
    frontAndBack
    {
        type            wall;
        inGroups        1(wall);
        nFaces          3204;
        startFace       646282;
    }
    inlet
    {
        type            patch;
        nFaces          0;
        startFace       649486;
    }
    outlet
    {
        type            patch;
        nFaces          629;
        startFace       649486;
    }
    lowerWall
    {
        type            wall;
        inGroups        1(wall);
        nFaces          4963;
        startFace       650115;
    }
    upperWall
    {
        type            wall;
        inGroups        1(wall);
        nFaces          1598;
        startFace       655078;
    }
    ahmedBody
    {
        type            wall;
        inGroups        1(wall);
        nFaces          0;
        startFace       656676;
    }
    procBoundary0to1
    {
        type            processor;
        inGroups        1(processor);
        nFaces          4812;
        startFace       656676;
        matchTolerance  0.0001;
        transform       unknown;
        myProcNo        0;
        neighbProcNo    1;
    }
    procBoundary0to2
    {
        type            processor;
        inGroups        1(processor);
        nFaces          391;
        startFace       661488;
        matchTolerance  0.0001;
        transform       unknown;
        myProcNo        0;
        neighbProcNo    2;
    }
    procBoundary0to3
    {
        type            processor;
        inGroups        1(processor);
        nFaces          19;
        startFace       661879;
        matchTolerance  0.0001;
        transform       unknown;
        myProcNo        0;
        neighbProcNo    3;
    }
)

// ************************************************************************* //
