/*--------------------------------*- C++ -*----------------------------------*\
| =========                 |                                                 |
| \\      /  F ield         | OpenFOAM: The Open Source CFD Toolbox           |
|  \\    /   O peration     | Version:  2406                                  |
|   \\  /    A nd           | Website:  www.openfoam.com                      |
|    \\/     M anipulation  |                                                 |
\*---------------------------------------------------------------------------*/
FoamFile
{
    version     2.0;
    format      binary;
    arch        "LSB;label=32;scalar=64";
    class       polyBoundaryMesh;
    location    "constant/polyMesh";
    object      boundary;
}
// * * * * * * * * * * * * * * * * * * * * * * * * * * * * * * * * * * * * * //

9
(
    frontAndBack
    {
        type            wall;
        inGroups        1(wall);
        nFaces          1608;
        startFace       644933;
    }
    inlet
    {
        type            patch;
        nFaces          629;
        startFace       646541;
    }
    outlet
    {
        type            patch;
        nFaces          0;
        startFace       647170;
    }
    lowerWall
    {
        type            wall;
        inGroups        1(wall);
        nFaces          4508;
        startFace       647170;
    }
    upperWall
    {
        type            wall;
        inGroups        1(wall);
        nFaces          778;
        startFace       651678;
    }
    ahmedBody
    {
        type            wall;
        inGroups        1(wall);
        nFaces          15888;
        startFace       652456;
    }
    procBoundary2to0
    {
        type            processor;
        inGroups        1(processor);
        nFaces          158;
        startFace       668344;
        matchTolerance  0.0001;
        transform       unknown;
        myProcNo        2;
        neighbProcNo    0;
    }
    procBoundary2to1
    {
        type            processor;
        inGroups        1(processor);
        nFaces          3147;
        startFace       668502;
        matchTolerance  0.0001;
        transform       unknown;
        myProcNo        2;
        neighbProcNo    1;
    }
    procBoundary2to3
    {
        type            processor;
        inGroups        1(processor);
        nFaces          6895;
        startFace       671649;
        matchTolerance  0.0001;
        transform       unknown;
        myProcNo        2;
        neighbProcNo    3;
    }
)

// ************************************************************************* //
