/*--------------------------------*- C++ -*----------------------------------*\
| =========                 |                                                 |
| \\      /  F ield         | OpenFOAM: The Open Source CFD Toolbox           |
|  \\    /   O peration     | Version:  2406                                  |
|   \\  /    A nd           | Website:  www.openfoam.com                      |
|    \\/     M anipulation  |                                                 |
\*---------------------------------------------------------------------------*/
FoamFile
{
    version     2.0;
    format      binary;
    arch        "LSB;label=32;scalar=64";
    class       polyBoundaryMesh;
    location    "constant/polyMesh";
    object      boundary;
}
// * * * * * * * * * * * * * * * * * * * * * * * * * * * * * * * * * * * * * //

9
(
    frontAndBack
    {
        type            wall;
        inGroups        1(wall);
        nFaces          3113;
        startFace       639626;
    }
    inlet
    {
        type            patch;
        nFaces          0;
        startFace       642739;
    }
    outlet
    {
        type            patch;
        nFaces          629;
        startFace       642739;
    }
    lowerWall
    {
        type            wall;
        inGroups        1(wall);
        nFaces          5302;
        startFace       643368;
    }
    upperWall
    {
        type            wall;
        inGroups        1(wall);
        nFaces          1566;
        startFace       648670;
    }
    ahmedBody
    {
        type            wall;
        inGroups        1(wall);
        nFaces          0;
        startFace       650236;
    }
    procBoundary2to0
    {
        type            processor;
        inGroups        1(processor);
        nFaces          30;
        startFace       650236;
        matchTolerance  0.0001;
        transform       unknown;
        myProcNo        2;
        neighbProcNo    0;
    }
    procBoundary2to1
    {
        type            processor;
        inGroups        1(processor);
        nFaces          347;
        startFace       650266;
        matchTolerance  0.0001;
        transform       unknown;
        myProcNo        2;
        neighbProcNo    1;
    }
    procBoundary2to3
    {
        type            processor;
        inGroups        1(processor);
        nFaces          4500;
        startFace       650613;
        matchTolerance  0.0001;
        transform       unknown;
        myProcNo        2;
        neighbProcNo    3;
    }
)

// ************************************************************************* //
