/*--------------------------------*- C++ -*----------------------------------*\
| =========                 |                                                 |
| \\      /  F ield         | OpenFOAM: The Open Source CFD Toolbox           |
|  \\    /   O peration     | Version:  2406                                  |
|   \\  /    A nd           | Website:  www.openfoam.com                      |
|    \\/     M anipulation  |                                                 |
\*---------------------------------------------------------------------------*/
FoamFile
{
    version     2.0;
    format      binary;
    arch        "LSB;label=32;scalar=64";
    class       polyBoundaryMesh;
    location    "constant/polyMesh";
    object      boundary;
}
// * * * * * * * * * * * * * * * * * * * * * * * * * * * * * * * * * * * * * //

9
(
    frontAndBack
    {
        type            wall;
        inGroups        1(wall);
        nFaces          210;
        startFace       655373;
    }
    inlet
    {
        type            patch;
        nFaces          0;
        startFace       655583;
    }
    outlet
    {
        type            patch;
        nFaces          0;
        startFace       655583;
    }
    lowerWall
    {
        type            wall;
        inGroups        1(wall);
        nFaces          469;
        startFace       655583;
    }
    upperWall
    {
        type            wall;
        inGroups        1(wall);
        nFaces          133;
        startFace       656052;
    }
    ahmedBody
    {
        type            wall;
        inGroups        1(wall);
        nFaces          14235;
        startFace       656185;
    }
    procBoundary3to0
    {
        type            processor;
        inGroups        1(processor);
        nFaces          184;
        startFace       670420;
        matchTolerance  0.0001;
        transform       unknown;
        myProcNo        3;
        neighbProcNo    0;
    }
    procBoundary3to1
    {
        type            processor;
        inGroups        1(processor);
        nFaces          2826;
        startFace       670604;
        matchTolerance  0.0001;
        transform       unknown;
        myProcNo        3;
        neighbProcNo    1;
    }
    procBoundary3to2
    {
        type            processor;
        inGroups        1(processor);
        nFaces          6895;
        startFace       673430;
        matchTolerance  0.0001;
        transform       unknown;
        myProcNo        3;
        neighbProcNo    2;
    }
)

// ************************************************************************* //
