/*--------------------------------*- C++ -*----------------------------------*\
| =========                 |                                                 |
| \\      /  F ield         | OpenFOAM: The Open Source CFD Toolbox           |
|  \\    /   O peration     | Version:  2406                                  |
|   \\  /    A nd           | Website:  www.openfoam.com                      |
|    \\/     M anipulation  |                                                 |
\*---------------------------------------------------------------------------*/
FoamFile
{
    version     2.0;
    format      binary;
    arch        "LSB;label=32;scalar=64";
    class       polyBoundaryMesh;
    location    "constant/polyMesh";
    object      boundary;
}
// * * * * * * * * * * * * * * * * * * * * * * * * * * * * * * * * * * * * * //

9
(
    frontAndBack
    {
        type            wall;
        inGroups        1(wall);
        nFaces          1968;
        startFace       656284;
    }
    inlet
    {
        type            patch;
        nFaces          629;
        startFace       658252;
    }
    outlet
    {
        type            patch;
        nFaces          0;
        startFace       658881;
    }
    lowerWall
    {
        type            wall;
        inGroups        1(wall);
        nFaces          3610;
        startFace       658881;
    }
    upperWall
    {
        type            wall;
        inGroups        1(wall);
        nFaces          988;
        startFace       662491;
    }
    ahmedBody
    {
        type            wall;
        inGroups        1(wall);
        nFaces          0;
        startFace       663479;
    }
    procBoundary0to1
    {
        type            processor;
        inGroups        1(processor);
        nFaces          4485;
        startFace       663479;
        matchTolerance  0.0001;
        transform       unknown;
        myProcNo        0;
        neighbProcNo    1;
    }
    procBoundary0to2
    {
        type            processor;
        inGroups        1(processor);
        nFaces          2062;
        startFace       667964;
        matchTolerance  0.0001;
        transform       unknown;
        myProcNo        0;
        neighbProcNo    2;
    }
    procBoundary0to3
    {
        type            processor;
        inGroups        1(processor);
        nFaces          3809;
        startFace       670026;
        matchTolerance  0.0001;
        transform       unknown;
        myProcNo        0;
        neighbProcNo    3;
    }
)

// ************************************************************************* //
